Version 4
SHEET 1 1428 680
WIRE 816 -352 816 -400
WIRE 592 -320 544 -320
WIRE 736 -304 656 -304
WIRE 976 -304 896 -304
WIRE 1040 -304 976 -304
WIRE 1360 -304 1168 -304
WIRE 192 -288 112 -288
WIRE 352 -288 256 -288
WIRE 592 -288 480 -288
WIRE 816 -176 816 -208
WIRE 224 -128 224 -256
WIRE 976 -128 976 -304
WIRE 976 -128 224 -128
WIRE 448 128 448 64
WIRE 448 128 368 128
WIRE 368 160 368 128
WIRE 448 176 448 128
WIRE 592 224 592 176
FLAG 592 224 0
FLAG 368 160 0
FLAG 256 176 -2.5V
FLAG 448 256 -2.5V
FLAG 448 -16 +2.5V
FLAG 592 96 Vin
FLAG 256 96 clk
FLAG 624 -336 +2.5V
FLAG 624 -272 -2.5V
FLAG 112 -288 Vin
FLAG 1360 -304 Vout
FLAG 544 -320 0
FLAG 816 -176 0
FLAG 816 -400 0
FLAG 976 -304 Vff
SYMBOL voltage 256 80 R0
WINDOW 3 -60 -143 VRight 2
WINDOW 123 0 0 Left 0
WINDOW 39 0 0 Left 0
SYMATTR InstName V1
SYMATTR Value PULSE(0 5 1e-6 1e-9 1e-9 0.5e-6 1e-6)
SYMBOL voltage 448 -32 R0
WINDOW 123 0 0 Left 0
WINDOW 39 0 0 Left 0
SYMATTR InstName V2
SYMATTR Value 2.5
SYMBOL voltage 448 160 R0
SYMATTR InstName V3
SYMATTR Value 2.5
SYMBOL voltage 592 80 R0
WINDOW 123 0 0 Left 0
WINDOW 39 0 0 Left 0
SYMATTR InstName V4
SYMATTR Value SINE(0 2 1000)
SYMBOL _HES_SO_VS_sym\\_HES_SO_VS_abm\\sub 224 -288 R0
SYMATTR InstName U1
SYMBOL _HES_SO_VS_sym\\_HES_SO_VS_abm\\integ 400 -304 R0
SYMATTR InstName U2
SYMATTR Value G=5e5
SYMBOL Opamps\\UniversalOpamp2 624 -304 R0
SYMATTR InstName U3
SYMATTR Value2 Avol=100Meg GBW=10G Slew=10G
SYMBOL _HES_SO_VS_sym\\_HES_SO_VS_abm\\laplace_2nd_order 1088 -320 R0
WINDOW 3 57 70 Center 2
WINDOW 123 104 93 Center 2
SYMATTR InstName U4
SYMATTR Value n0=2.5266e9 n1=0 n2=0
SYMATTR Value2 d0=2.5266e9 d1=7.1086e4 d2=1
SYMBOL Digital\\dflop 816 -352 R0
WINDOW 3 -94 160 Left 2
SYMATTR InstName A1
SYMATTR Value Vlow=-2.5 Vhigh=2.5
