Version 4
SHEET 1 880 680
WIRE 192 0 192 -16
WIRE 336 0 192 0
WIRE 192 32 192 0
WIRE 336 32 336 0
WIRE 32 128 32 112
WIRE 192 144 192 112
WIRE 480 144 192 144
WIRE 624 160 544 160
WIRE 336 176 336 112
WIRE 480 176 336 176
WIRE 192 208 192 144
WIRE 336 208 336 176
WIRE 624 208 624 160
WIRE 32 224 32 208
WIRE 192 320 192 288
WIRE 336 320 336 288
WIRE 336 320 192 320
WIRE 192 336 192 320
WIRE 624 336 624 288
FLAG 32 224 0
FLAG 32 112 5V
FLAG 192 336 0
FLAG 192 -16 5V
FLAG 512 128 5V
FLAG 512 192 0
FLAG 624 336 0
SYMBOL voltage 32 112 R0
SYMATTR InstName V1
SYMATTR Value 5
SYMBOL res 176 16 R0
SYMATTR InstName R1
SYMATTR Value 240k
SYMBOL res 176 192 R0
SYMATTR InstName RNTC
SYMATTR Value {NTC}
SYMBOL res 320 16 R0
SYMATTR InstName R3
SYMATTR Value 82k
SYMBOL res 320 192 R0
SYMATTR InstName R4
SYMATTR Value 482k
SYMBOL Opamps\\UniversalOpamp2 512 160 R0
SYMATTR InstName U1
SYMBOL res 608 192 R0
SYMATTR InstName R5
SYMATTR Value 100k
TEXT -2 360 Left 2 !.tran 10m
TEXT 0 384 Left 2 !.step param NTC 480k 2Meg 50k
